# Configuration file for MultiStage IIR unit test
# input generated from Chirp.raw and Square.raw

# Reset algorithm
SetParamInband
   PayloadSizeInBytes 32
   00 00 00 00    # Data Payload address
   00 00 00 00
   00 00 00 00
   10 00 00 00    # Size of Payload
   1F 03 01 00    # AUDPROC_MODULE_ID_MCHAN_IIR_TUNING_FILTER 0x0001031F
   07 07 01 00    # APPI_PARAM_ID_ALGORITHMIC_RESET 0x00010707
   04 00 00 00    # Param Size and Padding
   00 00 00 00    # Dummy payload

# Set Media Format
# Only signed/interleaved input is accepted and 
# signed/interleaved output will be generated
SetMediaFormat
   SetNumInChannels 1
   SetNumOutChannels 1
   SetInSamplingRate 48000
   SetOutSamplingRate 48000
   SetBytesPerSample 4

# Set IIR Enable
SetParamInband
   PayloadSizeInBytes 40
   00 00 00 00    # Data Payload address
   00 00 00 00
   00 00 00 00
   18 00 00 00    # Size of Payload
   1F 03 01 00    # AUDPROC_MODULE_ID_MCHAN_IIR_TUNING_FILTER 0x0001031F
   1C 03 01 00    # PARAM_ID_MSIIR_TUNING_FILTER_ENABLE  0x0001031C
   0C 00 00 00    # Param Size and Padding
   01 00 00 00    # num_channels
   03             # channel_type = PCM_CHANNEL_C
   00             # reserved1
   00             # reserved2
   00             # reserved3
   01 00 00 00    # enable_flag


# Set IIR Pregain
SetParamInband
   PayloadSizeInBytes 40
   00 00 00 00    # Data Payload address
   00 00 00 00
   00 00 00 00
   18 00 00 00    # Size of Payload
   1F 03 01 00    # AUDPROC_MODULE_ID_MCHAN_IIR_TUNING_FILTER          0x0001031F
   1D 03 01 00    # PARAM_ID_MSIIR_TUNING_FILTER_PREGAIN   0x0001031D
   0C 00 00 00    # Param Size and Padding
   01 00 00 00   # num_channels
   03            # channel_type = PCM_CHANNEL_C
   00            # reserved1
   00            # reserved2
   00            # reserved3
   00 00 00 08   # pregain, Q27 unity gain

# Set IIR Coefficients
# Filter coefficients take from System reference test MSIIR_Stop.cfg
SetParamInband
   PayloadSizeInBytes 148
   00 00 00 00    # Data Payload address
   00 00 00 00
   00 00 00 00
   84 00 00 00    # Size of Payload 
   1F 03 01 00    # AUDPROC_MODULE_ID_MCHAN_IIR_TUNING_FILTER               0x0001031F
   1E 03 01 00    # PARAM_ID_MSIIR_TUNING_FILTER_CONFIG_PARAMS  0x0001031E
   78 00 00 00    # Param Size and Padding
   01 00 00 00    # num_channels
   03             # channel_type = PCM_CHANNEL_C
   00             # reserved
   05 00          # num_biquad_stages
   3D F2 C4 3E    # Stage 1 (b0, b1, b2, a1, a2)
   6E 1F 75 04
   12 BA 6D 31
   D9 E6 6C 04
   B8 24 A5 32
   BE 7C CB 3D    # Stage 2 (b0, b1, b2, a1, a2)
   E8 61 94 B4
   48 7D 92 2C
   38 35 6F B1
   2F B2 18 2F
   05 80 EC 3C    # Stage 3 (b0, b1, b2, a1, a2)
   1C 6E CA F3
   EC 69 E2 29
   A4 6B 2A F6
   CD 18 7E 2C
   B9 B1 F2 3F    # Stage 4 (b0, b1, b2, a1, a2)
   BC EF AA C3
   86 C4 51 26
   12 8D E0 BF
   11 0F B4 26
   CE 86 10 40    # Stage 5 (b0, b1, b2, a1, a2)
   54 F8 67 D4
   43 A2 98 32
   0E F3 D1 DA
   04 31 4B 27
   02 00          # Stage 1 numerator shift factor
   02 00          # Stage 2 numerator shift factor
   02 00          # Stage 3 numerator shift factor
   02 00          # Stage 4 numerator shift factor
   02 00          # Stage 5 numerator shift factor
   00 00          # padding


ProcessData
   NumBuffers 1000

# Get IIR Enable
GetParamInband
   PayloadSizeInBytes 24
   00 00 00 00    # Data Payload address
   00 00 00 00
   00 00 00 00
   1F 03 01 00    # AUDPROC_MODULE_ID_MCHAN_IIR_TUNING_FILTER        0x0001031F
   1C 03 01 00    # PARAM_ID_MSIIR_TUNING_FILTER_ENABLE  0x0001031C
   44 00 00 00    # Param Size and Padding
   RefPayloadSizeInBytes 12
   01 00 00 00    # num_channels
   03             # channel_type = PCM_CHANNEL_C
   00             # reserved1
   00             # reserved2
   00             # reserved3
   01 00 00 00    # enable_flag


# Get IIR algorithm Delay
#GetParamInband
#   PayloadSizeInBytes 24
#   00 00 00 00    # Data Payload address
#   00 00 00 00
#   00 00 00 00
#   41 0c 01 00    # ADM_MODULE_ID_TX_IIR_FILTER 0x00010C41
#   08 07 01 00    # APPI_PARAM_ID_ALGORITHMIC_DELAY 0x00010708
#   04 00 00 00    # Param Size and Padding
#   RefPayloadSizeInBytes 4
#   0A 00 00 00    

