# Configuration file for MultiStage IIR unit test
# input generated from Chirp.raw and Square.raw

# Reset algorithm
SetParamInband
   PayloadSizeInBytes 32
   00 00 00 00    # Data Payload address
   00 00 00 00
   00 00 00 00
   10 00 00 00    # Size of Payload
   1F 03 01 00    # AUDPROC_MODULE_ID_MCHAN_IIR_TUNING_FILTER 0x0001031F
   07 07 01 00    # APPI_PARAM_ID_ALGORITHMIC_RESET 0x00010707
   04 00 00 00    # Param Size and Padding
   00 00 00 00    # Dummy payload

# Set Media Format
# Only signed/interleaved input is accepted and 
# signed/interleaved output will be generated
SetMediaFormat
   SetNumInChannels 1
   SetNumOutChannels 1
   SetInSamplingRate 48000
   SetOutSamplingRate 48000
   SetBytesPerSample 4

# Set IIR Enable
SetParamInband
   PayloadSizeInBytes 40
   00 00 00 00    # Data Payload address
   00 00 00 00
   00 00 00 00
   18 00 00 00    # Size of Payload
   1F 03 01 00    # AUDPROC_MODULE_ID_MCHAN_IIR_TUNING_FILTER 0x0001031F
   1C 03 01 00    # PARAM_ID_MSIIR_TUNING_FILTER_ENABLE  0x0001031C
   0C 00 00 00    # Param Size and Padding
   01 00 00 00    # num_channels
   03             # channel_type = PCM_CHANNEL_C
   00             # reserved1
   00             # reserved2
   00             # reserved3
   01 00 00 00    # enable_flag


# Set IIR Pregain
SetParamInband
   PayloadSizeInBytes 40
   00 00 00 00    # Data Payload address
   00 00 00 00
   00 00 00 00
   18 00 00 00    # Size of Payload
   1F 03 01 00    # AUDPROC_MODULE_ID_MCHAN_IIR_TUNING_FILTER          0x0001031F
   1D 03 01 00    # PARAM_ID_MSIIR_TUNING_FILTER_PREGAIN   0x0001031D
   0C 00 00 00    # Param Size and Padding
   01 00 00 00   # num_channels
   03            # channel_type = PCM_CHANNEL_C
   00            # reserved1
   00            # reserved2
   00            # reserved3
   00 00 00 08   # pregain, Q27 Unity

# Set IIR Coefficients
# Filter coefficients take from System reference test MSIIR_LPF.cfg
SetParamInband
   PayloadSizeInBytes 104
   00 00 00 00    # Data Payload address
   00 00 00 00
   00 00 00 00
   58 00 00 00    # Size of Payload 
   1F 03 01 00    # AUDPROC_MODULE_ID_MCHAN_IIR_TUNING_FILTER               0x0001031F
   1E 03 01 00    # PARAM_ID_MSIIR_TUNING_FILTER_CONFIG_PARAMS  0x0001031E
   4C 00 00 00    # Param Size and Padding
   01 00 00 00    # num_channels
   03             # channel_type = PCM_CHANNEL_C
   00             # reserved
   03 00          # num_biquad_stages
   80 2E 0A 1D    # Stage 1 (b0, b1, b2, a1, a2)
   FF 31 A6 39
   80 2E 0A 1D
   D2 D9 10 25
   2D B5 A9 0E
   67 CF C8 3B    # Stage 2 (b0, b1, b2, a1, a2)
   8B 15 AF 6E
   67 CF C8 3B
   F0 12 8F 6A
   D2 D4 9A 3C
   9B B2 FF 30    # Stage 3 (b0, b1, b2, a1, a2)
   88 30 70 5D
   9B B2 FF 30
   6B CD 60 59
   2D 19 9A 30
   02 00          # Stage 1 numerator shift factor
   02 00          # Stage 2 numerator shift factor
   02 00          # Stage 3 numerator shift factor
   00 00          # padding

ProcessData
   NumBuffers 1000

# Get IIR Enable
GetParamInband
   PayloadSizeInBytes 24
   00 00 00 00    # Data Payload address
   00 00 00 00
   00 00 00 00
   1F 03 01 00    # AUDPROC_MODULE_ID_MCHAN_IIR_TUNING_FILTER        0x0001031F
   1C 03 01 00    # PARAM_ID_MSIIR_TUNING_FILTER_ENABLE  0x0001031C
   44 00 00 00    # Param Size and Padding
   RefPayloadSizeInBytes 12
   01 00 00 00    # num_channels
   03             # channel_type = PCM_CHANNEL_C
   00             # reserved1
   00             # reserved2
   00             # reserved3
   01 00 00 00    # enable_flag


# Get IIR algorithm Delay
#GetParamInband
#   PayloadSizeInBytes 24
#   00 00 00 00    # Data Payload address
#   00 00 00 00
#   00 00 00 00
#   41 0c 01 00    # ADM_MODULE_ID_TX_IIR_FILTER 0x00010C41
#   08 07 01 00    # APPI_PARAM_ID_ALGORITHMIC_DELAY 0x00010708
#   04 00 00 00    # Param Size and Padding
#   RefPayloadSizeInBytes 4
#   0A 00 00 00    

