# Configuration file for MultiStage IIR unit test
# input generated from Chirp.raw and Square.raw

# Reset algorithm
SetParamInband
   PayloadSizeInBytes 32
   00 00 00 00    # Data Payload address
   00 00 00 00
   00 00 00 00
   10 00 00 00    # Size of Payload
   1F 03 01 00    # AUDPROC_MODULE_ID_MCHAN_IIR_TUNING_FILTER 0x0001031F
   07 07 01 00    # APPI_PARAM_ID_ALGORITHMIC_RESET 0x00010707
   04 00 00 00    # Param Size and Padding
   00 00 00 00    # Dummy payload

# Set Media Format
# Only signed/interleaved input is accepted and 
# signed/interleaved output will be generated
SetMediaFormat
   SetNumInChannels 1
   SetNumOutChannels 1
   SetInSamplingRate 48000
   SetOutSamplingRate 48000
   SetBytesPerSample 4

# Set IIR Enable
SetParamInband
   PayloadSizeInBytes 40
   00 00 00 00    # Data Payload address
   00 00 00 00
   00 00 00 00
   18 00 00 00    # Size of Payload
   1F 03 01 00    # AUDPROC_MODULE_ID_MCHAN_IIR_TUNING_FILTER 0x0001031F
   1C 03 01 00    # PARAM_ID_MSIIR_TUNING_FILTER_ENABLE  0x0001031C
   0C 00 00 00    # Param Size and Padding
   01 00 00 00    # num_channels
   03             # channel_type = PCM_CHANNEL_C
   00             # reserved1
   00             # reserved2
   00             # reserved3
   01 00 00 00    # enable_flag


# Set IIR Pregain
SetParamInband
   PayloadSizeInBytes 40
   00 00 00 00    # Data Payload address
   00 00 00 00
   00 00 00 00
   18 00 00 00    # Size of Payload
   1F 03 01 00    # AUDPROC_MODULE_ID_MCHAN_IIR_TUNING_FILTER          0x0001031F
   1D 03 01 00    # PARAM_ID_MSIIR_TUNING_FILTER_PREGAIN   0x0001031D
   0C 00 00 00    # Param Size and Padding
   01 00 00 00   # num_channels
   03            # channel_type = PCM_CHANNEL_C
   00            # reserved1
   00            # reserved2
   00            # reserved3
   FF FF FF 7F   # pregain, Q27 


ProcessData
   NumBuffers 1000

# Get IIR Enable
GetParamInband
   PayloadSizeInBytes 24
   00 00 00 00    # Data Payload address
   00 00 00 00
   00 00 00 00
   1F 03 01 00    # AUDPROC_MODULE_ID_MCHAN_IIR_TUNING_FILTER        0x0001031F
   1C 03 01 00    # PARAM_ID_MSIIR_TUNING_FILTER_ENABLE  0x0001031C
   44 00 00 00    # Param Size and Padding
   RefPayloadSizeInBytes 12
   01 00 00 00    # num_channels
   03             # channel_type = PCM_CHANNEL_C
   00             # reserved1
   00             # reserved2
   00             # reserved3
   01 00 00 00    # enable_flag


# Get IIR algorithm Delay
#GetParamInband
#   PayloadSizeInBytes 24
#   00 00 00 00    # Data Payload address
#   00 00 00 00
#   00 00 00 00
#   41 0c 01 00    # ADM_MODULE_ID_TX_IIR_FILTER 0x00010C41
#   08 07 01 00    # APPI_PARAM_ID_ALGORITHMIC_DELAY 0x00010708
#   04 00 00 00    # Param Size and Padding
#   RefPayloadSizeInBytes 4
#   0A 00 00 00    

