# Configuration file for MultiStage IIR unit test
# input generated from Chirp.raw and Square.raw

# Reset algorithm
SetParamInband
   PayloadSizeInBytes 32
   00 00 00 00    # Data Payload address
   00 00 00 00
   00 00 00 00
   10 00 00 00    # Size of Payload
   1F 03 01 00    # AUDPROC_MODULE_ID_MCHAN_IIR_TUNING_FILTER 0x0001031F
   07 07 01 00    # APPI_PARAM_ID_ALGORITHMIC_RESET 0x00010707
   04 00 00 00    # Param Size and Padding
   00 00 00 00    # Dummy payload

# Set Media Format
# Only signed/interleaved input is accepted and 
# signed/interleaved output will be generated
SetMediaFormat
   SetNumInChannels 1
   SetNumOutChannels 1
   SetInSamplingRate 48000
   SetOutSamplingRate 48000
   SetBytesPerSample 4

# Set IIR Enable
SetParamInband
   PayloadSizeInBytes 40
   00 00 00 00    # Data Payload address
   00 00 00 00
   00 00 00 00
   18 00 00 00    # Size of Payload
   1F 03 01 00    # AUDPROC_MODULE_ID_MCHAN_IIR_TUNING_FILTER 0x0001031F
   1C 03 01 00    # PARAM_ID_MSIIR_TUNING_FILTER_ENABLE  0x0001031C
   0C 00 00 00    # Param Size and Padding
   01 00 00 00    # num_channels
   03             # channel_type = PCM_CHANNEL_C
   00             # reserved1
   00             # reserved2
   00             # reserved3
   01 00 00 00    # enable_flag


# Set IIR Pregain
SetParamInband
   PayloadSizeInBytes 40
   00 00 00 00    # Data Payload address
   00 00 00 00
   00 00 00 00
   18 00 00 00    # Size of Payload
   1F 03 01 00    # AUDPROC_MODULE_ID_MCHAN_IIR_TUNING_FILTER          0x0001031F
   1D 03 01 00    # PARAM_ID_MSIIR_TUNING_FILTER_PREGAIN   0x0001031D
   0C 00 00 00    # Param Size and Padding
   01 00 00 00   # num_channels
   03            # channel_type = PCM_CHANNEL_C
   00            # reserved1
   00            # reserved2
   00            # reserved3
   00 00 00 08   # pregain, Q27 Unity

# Set IIR Coefficients
# Filter coefficients take from System reference test MSIIR_HPF.cfg
SetParamInband
   PayloadSizeInBytes 104
   00 00 00 00    # Data Payload address
   00 00 00 00
   00 00 00 00
   58 00 00 00    # Size of Payload 
   1F 03 01 00    # AUDPROC_MODULE_ID_MCHAN_IIR_TUNING_FILTER               0x0001031F
   1E 03 01 00    # PARAM_ID_MSIIR_TUNING_FILTER_CONFIG_PARAMS  0x0001031E
   4C 00 00 00    # Param Size and Padding
   01 00 00 00    # num_channels
   03             # channel_type = PCM_CHANNEL_C
   00             # reserved
   03 00          # num_biquad_stages
   B8 DB B9 2F    # Stage 1 (b0, b1, b2, a1, a2)
   D8 6F A2 A0
   B8 DB B9 2F
   90 09 C6 A4
   28 51 97 23
   51 39 CE 3E    # Stage 2 (b0, b1, b2, a1, a2)
   5A CB 90 83
   51 39 CE 3E
   04 79 AD 83
   85 5F B6 3E
   8A 2F 00 39    # Stage 3 (b0, b1, b2, a1, a2)
   8D AD A8 8E
   8A 2F 00 39
   FB E1 BF 89
   74 30 9D 39
   02 00          # Stage 1 numerator shift factor
   02 00          # Stage 2 numerator shift factor
   02 00          # Stage 3 numerator shift factor
   00 00          # padding

ProcessData
   NumBuffers 1000

# Get IIR Enable
GetParamInband
   PayloadSizeInBytes 24
   00 00 00 00    # Data Payload address
   00 00 00 00
   00 00 00 00
   1F 03 01 00    # AUDPROC_MODULE_ID_MCHAN_IIR_TUNING_FILTER        0x0001031F
   1C 03 01 00    # PARAM_ID_MSIIR_TUNING_FILTER_ENABLE  0x0001031C
   44 00 00 00    # Param Size and Padding
   RefPayloadSizeInBytes 12
   01 00 00 00    # num_channels
   03             # channel_type = PCM_CHANNEL_C
   00             # reserved1
   00             # reserved2
   00             # reserved3
   01 00 00 00    # enable_flag


# Get IIR algorithm Delay
#GetParamInband
#   PayloadSizeInBytes 24
#   00 00 00 00    # Data Payload address
#   00 00 00 00
#   00 00 00 00
#   41 0c 01 00    # ADM_MODULE_ID_TX_IIR_FILTER 0x00010C41
#   08 07 01 00    # APPI_PARAM_ID_ALGORITHMIC_DELAY 0x00010708
#   04 00 00 00    # Param Size and Padding
#   RefPayloadSizeInBytes 4
#   0A 00 00 00    

