# Configuration file for MultiStage IIR unit test
# input generated from Chirp.raw and Square.raw

# Reset algorithm
SetParamInband
   PayloadSizeInBytes 32
   00 00 00 00    # Data Payload address
   00 00 00 00
   00 00 00 00
   10 00 00 00    # Size of Payload
   1F 03 01 00    # AUDPROC_MODULE_ID_MCHAN_IIR_TUNING_FILTER 0x0001031F
   07 07 01 00    # APPI_PARAM_ID_ALGORITHMIC_RESET 0x00010707
   04 00 00 00    # Param Size and Padding
   00 00 00 00    # Dummy payload

# Set Media Format
# Only signed/interleaved input is accepted and 
# signed/interleaved output will be generated
SetMediaFormat
   SetNumInChannels 1
   SetNumOutChannels 1
   SetInSamplingRate 48000
   SetOutSamplingRate 48000
   SetBytesPerSample 4

# Set IIR Enable
SetParamInband
   PayloadSizeInBytes 40
   00 00 00 00    # Data Payload address
   00 00 00 00
   00 00 00 00
   18 00 00 00    # Size of Payload
   1F 03 01 00    # AUDPROC_MODULE_ID_MCHAN_IIR_TUNING_FILTER 0x0001031F
   1C 03 01 00    # PARAM_ID_MSIIR_TUNING_FILTER_ENABLE  0x0001031C
   0C 00 00 00    # Param Size and Padding
   01 00 00 00    # num_channels
   03             # channel_type = PCM_CHANNEL_C
   00             # reserved1
   00             # reserved2
   00             # reserved3
   01 00 00 00    # enable_flag


# Set IIR Pregain
SetParamInband
   PayloadSizeInBytes 40
   00 00 00 00    # Data Payload address
   00 00 00 00
   00 00 00 00
   18 00 00 00    # Size of Payload
   1F 03 01 00    # AUDPROC_MODULE_ID_MCHAN_IIR_TUNING_FILTER          0x0001031F
   1D 03 01 00    # PARAM_ID_MSIIR_TUNING_FILTER_PREGAIN   0x0001031D
   0C 00 00 00    # Param Size and Padding
   01 00 00 00   # num_channels
   03            # channel_type = PCM_CHANNEL_C
   00            # reserved1
   00            # reserved2
   00            # reserved3
   00 00 00 08   # pregain, Q27 unity gain

# Set IIR Coefficients
# Filter coefficients take from System reference test MSIIR_Boost_numShiftFactor_stage1.cfg
SetParamInband
   PayloadSizeInBytes 148
   00 00 00 00    # Data Payload address
   00 00 00 00
   00 00 00 00
   84 00 00 00    # Size of Payload 
   1F 03 01 00    # AUDPROC_MODULE_ID_MCHAN_IIR_TUNING_FILTER               0x0001031F
   1E 03 01 00    # PARAM_ID_MSIIR_TUNING_FILTER_CONFIG_PARAMS  0x0001031E
   78 00 00 00    # Param Size and Padding
   01 00 00 00    # num_channels
   03             # channel_type = PCM_CHANNEL_C
   00             # reserved
   05 00          # num_biquad_stages
   98 8B 3A 3F    # Stage 1 (b0, b1, b2, a1, a2)
   04 47 A4 0B
   F8 81 95 32
   6D A5 9E 0B
   28 AF D5 31
   DB CC 2B 3E    # Stage 2 (b0, b1, b2, a1, a2)
   B9 0C F2 B7
   FE 58 80 30
   6C 83 BF B8
   5C 7A 65 2F
   C7 16 D6 38    # Stage 3 (b0, b1, b2, a1, a2)
   DF 70 E9 CC
   BA C6 25 1F
   55 4D CD CB
   AF 17 2F 24
   60 6B 68 37    # Stage 4 (b0, b1, b2, a1, a2)
   0B 1B CD 02
   52 E0 5E 24
   EA 67 E2 FC
   35 F0 88 2A
   A7 BD 60 65    # Stage 5 (b0, b1, b2, a1, a2)
   E4 1F 22 D9
   1C DD 61 31
   1A 0D A0 DF
   C1 7C 0F 2C
   03 00          # Stage 1 numerator shift factor
   02 00          # Stage 2 numerator shift factor
   02 00          # Stage 3 numerator shift factor
   02 00          # Stage 4 numerator shift factor
   02 00          # Stage 5 numerator shift factor
   00 00          # padding


ProcessData
   NumBuffers 1000

# Get IIR Enable
GetParamInband
   PayloadSizeInBytes 24
   00 00 00 00    # Data Payload address
   00 00 00 00
   00 00 00 00
   1F 03 01 00    # AUDPROC_MODULE_ID_MCHAN_IIR_TUNING_FILTER        0x0001031F
   1C 03 01 00    # PARAM_ID_MSIIR_TUNING_FILTER_ENABLE  0x0001031C
   44 00 00 00    # Param Size and Padding
   RefPayloadSizeInBytes 12
   01 00 00 00    # num_channels
   03             # channel_type = PCM_CHANNEL_C
   00             # reserved1
   00             # reserved2
   00             # reserved3
   01 00 00 00    # enable_flag


# Get IIR algorithm Delay
#GetParamInband
#   PayloadSizeInBytes 24
#   00 00 00 00    # Data Payload address
#   00 00 00 00
#   00 00 00 00
#   41 0c 01 00    # ADM_MODULE_ID_TX_IIR_FILTER 0x00010C41
#   08 07 01 00    # APPI_PARAM_ID_ALGORITHMIC_DELAY 0x00010708
#   04 00 00 00    # Param Size and Padding
#   RefPayloadSizeInBytes 4
#   0A 00 00 00    

